Version 4
SHEET 1 880 680
WIRE -144 -560 -144 -592
WIRE 400 -512 400 -592
WIRE 352 -496 304 -496
WIRE -144 -432 -144 -480
WIRE 304 -384 304 -496
WIRE 304 -384 272 -384
WIRE 400 -384 400 -416
WIRE 432 -384 400 -384
WIRE 400 -368 400 -384
WIRE 304 -288 304 -384
WIRE 352 -288 304 -288
WIRE -144 -272 -144 -320
WIRE 400 -176 400 -272
WIRE -144 -144 -144 -192
FLAG 272 -384 in
IOPIN 272 -384 In
FLAG 400 -592 Vdd
IOPIN 400 -592 In
FLAG 432 -384 out
IOPIN 432 -384 Out
FLAG 400 -176 0
FLAG -144 -592 Vdd
IOPIN -144 -592 In
FLAG -144 -320 in
IOPIN -144 -320 In
FLAG -144 -432 0
FLAG -144 -144 0
SYMBOL pmos 352 -416 M180
SYMATTR InstName M1
SYMBOL nmos 352 -368 R0
SYMATTR InstName M6
SYMBOL voltage -144 -576 R0
WINDOW 123 0 0 Left 0
WINDOW 39 0 0 Left 0
SYMATTR InstName V1
SYMATTR Value 5
SYMBOL voltage -144 -288 R0
WINDOW 123 0 0 Left 0
WINDOW 39 0 0 Left 0
SYMATTR InstName V2
SYMATTR Value PULSE(0 5 0.1m 0.01m 0.05m 1m 2m)
TEXT -208 -112 Left 2 !.tran 10m
