Version 4
SHEET 1 880 680
WIRE 128 -368 128 -400
WIRE -224 -272 -224 -304
WIRE 128 -256 128 -288
WIRE -224 -160 -224 -192
WIRE 448 -112 448 -176
WIRE 448 -112 416 -112
WIRE 544 -112 448 -112
WIRE 544 -80 544 -112
WIRE 496 -64 464 -64
WIRE 416 -16 416 -112
WIRE -224 48 -224 16
WIRE 544 80 544 16
WIRE 544 80 416 80
WIRE 640 80 544 80
WIRE 464 96 464 -64
WIRE 464 96 288 96
WIRE 544 96 544 80
WIRE -224 160 -224 128
WIRE 368 176 368 0
WIRE 368 176 288 176
WIRE 464 176 464 96
WIRE 496 176 464 176
WIRE 544 240 544 192
WIRE 368 320 368 176
WIRE 496 320 368 320
WIRE 544 400 544 336
FLAG 288 176 in2
IOPIN 288 176 In
FLAG 448 -176 Vdd
IOPIN 448 -176 In
FLAG 544 400 0
FLAG 288 96 in1
IOPIN 288 96 In
FLAG 128 -400 Vdd
IOPIN 128 -400 In
FLAG -224 -304 in1
IOPIN -224 -304 In
FLAG -224 16 in2
IOPIN -224 16 In
FLAG 128 -256 0
FLAG -224 -160 0
FLAG -224 160 0
FLAG 640 80 out
IOPIN 640 80 Out
SYMBOL nmos 496 96 R0
SYMATTR InstName M1
SYMBOL pmos 496 16 M180
SYMATTR InstName M2
SYMBOL pmos 368 80 M180
WINDOW 3 49 53 Left 2
SYMATTR InstName M3
SYMBOL nmos 496 240 R0
SYMATTR InstName M4
SYMBOL voltage 128 -384 R0
WINDOW 123 0 0 Left 0
WINDOW 39 0 0 Left 0
SYMATTR InstName V1
SYMATTR Value 5
SYMBOL voltage -224 -288 R0
WINDOW 3 -263 172 Left 2
WINDOW 123 0 0 Left 0
WINDOW 39 0 0 Left 0
SYMATTR InstName V2
SYMATTR Value PULSE(0 5 0.1m 0.01m 0.05m 1m 2m 10)
SYMBOL voltage -224 32 R0
WINDOW 3 -264 178 Left 2
WINDOW 123 0 0 Left 0
WINDOW 39 0 0 Left 0
SYMATTR InstName V3
SYMATTR Value PULSE(0 5 0.5m 0.01m 0.05m 1m 2m)
TEXT -488 424 Left 2 !.tran 10m
