Version 4
SHEET 1 1120 680
WIRE 112 64 0 64
WIRE 0 80 0 64
WIRE 112 96 112 64
WIRE 128 96 112 96
WIRE 128 128 64 128
WIRE 128 160 96 160
WIRE 304 160 256 160
WIRE 0 192 0 160
WIRE 96 208 96 160
WIRE 160 208 96 208
WIRE 64 224 64 128
WIRE 160 224 160 208
WIRE 64 320 64 304
WIRE 160 320 160 304
FLAG 304 160 0
FLAG 0 192 0
FLAG 64 320 0
FLAG 160 320 0
SYMBOL SRLatch 192 128 R0
SYMATTR InstName X1
SYMBOL voltage 0 64 R0
WINDOW 123 0 0 Left 0
WINDOW 39 0 0 Left 0
SYMATTR InstName V1
SYMATTR Value 5
SYMBOL voltage 64 208 R0
WINDOW 3 -327 157 Left 2
WINDOW 123 0 0 Left 0
WINDOW 39 0 0 Left 0
SYMATTR InstName V2
SYMATTR Value PULSE(0 0 0 0.01m 0.05m 1m 2m)
SYMBOL voltage 160 208 R0
WINDOW 3 17 156 Left 2
WINDOW 123 0 0 Left 0
WINDOW 39 0 0 Left 0
SYMATTR InstName V3
SYMATTR Value PULSE(0 0 0.5m 0.01m 0.05m 1m 2m)
TEXT -112 464 Left 2 !.tran 10m
TEXT -176 -8 Left 2 !.include "C:\\KLayout\\salt\\ICPS2023_5\\Technology\\tech\\models\\SOI_CMOS"
