Version 4
SHEET 1 880 916
WIRE -208 -416 -400 -416
WIRE -64 -416 -64 -480
WIRE -64 -416 -208 -416
WIRE 64 -416 -64 -416
WIRE 64 -384 64 -416
WIRE 16 -368 -16 -368
WIRE -400 -336 -400 -416
WIRE -448 -320 -496 -320
WIRE -64 -320 -64 -416
WIRE 64 -224 64 -288
WIRE 64 -224 -64 -224
WIRE 208 -224 64 -224
WIRE 304 -224 208 -224
WIRE -496 -208 -496 -320
WIRE -496 -208 -528 -208
WIRE -400 -208 -400 -240
WIRE -16 -208 -16 -368
WIRE -16 -208 -400 -208
WIRE 64 -208 64 -224
WIRE -400 -192 -400 -208
WIRE -112 -128 -112 -304
WIRE -112 -128 -128 -128
WIRE -16 -128 -16 -208
WIRE 16 -128 -16 -128
WIRE -496 -112 -496 -208
WIRE -448 -112 -496 -112
WIRE 64 -64 64 -112
WIRE -112 16 -112 -128
WIRE 16 16 -112 16
WIRE -400 96 -400 -96
WIRE -256 96 -400 96
WIRE 64 96 64 32
WIRE 64 96 -256 96
WIRE 208 160 208 -224
WIRE 208 160 -160 160
WIRE -128 192 -128 -128
WIRE 208 192 -128 192
WIRE -208 224 -208 -416
WIRE -208 224 -400 224
WIRE -64 224 -208 224
WIRE 64 224 -64 224
WIRE 64 256 64 224
WIRE 16 272 -16 272
WIRE -400 304 -400 224
WIRE -448 320 -496 320
WIRE -64 320 -64 224
WIRE 64 416 64 352
WIRE 64 416 -64 416
WIRE 208 416 208 192
WIRE 208 416 64 416
WIRE 320 416 208 416
WIRE -496 432 -496 320
WIRE -496 432 -528 432
WIRE -400 432 -400 400
WIRE -16 432 -16 272
WIRE -16 432 -400 432
WIRE 64 432 64 416
WIRE -400 448 -400 432
WIRE -16 512 -16 432
WIRE 16 512 -16 512
WIRE -496 528 -496 432
WIRE -448 528 -496 528
WIRE -160 544 -160 160
WIRE -112 544 -112 336
WIRE -112 544 -160 544
WIRE 64 576 64 528
WIRE -112 656 -112 544
WIRE 16 656 -112 656
WIRE -400 736 -400 544
WIRE -256 736 -256 96
WIRE -256 736 -400 736
WIRE -144 736 -256 736
WIRE 64 736 64 672
WIRE 64 736 -144 736
WIRE -144 816 -144 736
FLAG -528 -208 S
IOPIN -528 -208 In
FLAG -64 -480 Vdd
IOPIN -64 -480 In
FLAG 304 -224 Q
IOPIN 304 -224 Out
FLAG -528 432 R
IOPIN -528 432 In
FLAG 320 416 ~Q
IOPIN 320 416 Out
FLAG -144 816 Vss
IOPIN -144 816 Out
SYMBOL pmos -448 -240 M180
SYMATTR InstName M1
SYMBOL nmos -448 -192 R0
SYMATTR InstName M2
SYMBOL nmos 16 -208 R0
SYMATTR InstName M3
SYMBOL pmos 16 -288 M180
SYMATTR InstName M4
SYMBOL pmos -112 -224 M180
WINDOW 3 49 53 Left 2
SYMATTR InstName M5
SYMBOL nmos 16 -64 R0
SYMATTR InstName M6
SYMBOL pmos -448 400 M180
SYMATTR InstName M7
SYMBOL nmos -448 448 R0
SYMATTR InstName M8
SYMBOL nmos 16 432 R0
SYMATTR InstName M9
SYMBOL pmos 16 352 M180
SYMATTR InstName M10
SYMBOL pmos -112 416 M180
WINDOW 3 49 53 Left 2
SYMATTR InstName M11
SYMBOL nmos 16 576 R0
SYMATTR InstName M12
